LTspice 24.1.1 for Windows
Circuit: D:\Electronics_circ_p\mat\Five-Operation-ALU_LTspice_Verilog\LTspice\Gates\NAND\Draft10.net
Start Time: Thu Dec 18 00:47:14 2025
solver = Normal
Maximum thread count: 24
tnom = 27
temp = 27
method = trap
D:\Electronics_circ_p\mat\Five-Operation-ALU_LTspice_Verilog\LTspice\Gates\NAND\Draft10.net(2): Limiting rise time to 1e-07.

V§B B 0 PULSE(0 5 0 0 0 1u 2u)
^^^^^^^^^^^^^^^^^^^^^^^^^^^^^^
D:\Electronics_circ_p\mat\Five-Operation-ALU_LTspice_Verilog\LTspice\Gates\NAND\Draft10.net(2): Limiting fall time to 1e-07.

V§B B 0 PULSE(0 5 0 0 0 1u 2u)
^^^^^^^^^^^^^^^^^^^^^^^^^^^^^^
D:\Electronics_circ_p\mat\Five-Operation-ALU_LTspice_Verilog\LTspice\Gates\NAND\Draft10.net(3): Limiting rise time to 5e-08.

V§A A 0 PULSE(0 5 0 0 0 0.5u 1u)
^^^^^^^^^^^^^^^^^^^^^^^^^^^^^^^^
D:\Electronics_circ_p\mat\Five-Operation-ALU_LTspice_Verilog\LTspice\Gates\NAND\Draft10.net(3): Limiting fall time to 5e-08.

V§A A 0 PULSE(0 5 0 0 0 0.5u 1u)
^^^^^^^^^^^^^^^^^^^^^^^^^^^^^^^^
D:\Electronics_circ_p\mat\Five-Operation-ALU_LTspice_Verilog\LTspice\Gates\NAND\Draft10.net(6): Limiting rise time to 1e-07.

V§S S 0 PULSE(0 5 0 0 0 1u 2u)
^^^^^^^^^^^^^^^^^^^^^^^^^^^^^^
D:\Electronics_circ_p\mat\Five-Operation-ALU_LTspice_Verilog\LTspice\Gates\NAND\Draft10.net(6): Limiting fall time to 1e-07.

V§S S 0 PULSE(0 5 0 0 0 1u 2u)
^^^^^^^^^^^^^^^^^^^^^^^^^^^^^^
Direct Newton iteration for .op point succeeded.
Total elapsed time: 0.204 seconds.

Files loaded:
D:\Electronics_circ_p\mat\Five-Operation-ALU_LTspice_Verilog\LTspice\Gates\NAND\Draft10.net

