LTspice 24.1.1 for Windows
Circuit: D:\Electronics_circ_p\mat\Five-Operation-ALU_LTspice_Verilog\LTspice\AddSub\AddSub_TB.net
Start Time: Fri Dec 19 13:56:49 2025
Options: abstol=1e-10 reltol=0.01 vntol=1e-5  gmin=1e-11 itl1=500 itl4=1000 itl5=0  noopiter
solver = Normal
Maximum thread count: 24
tnom = 27
temp = 27
method = trap
gmin = 1e-11
abstol = 1e-10
reltol = 0.01
volttol = 1e-05
noOpIter = true
Direct Newton iteration for .op point skipped.
Starting Gmin stepping
Gmin = 10
Gmin = 1.07374
Gmin = 0.115292
Gmin = 0.0123794
Gmin = 0.00132923
Gmin = 0.000142725
Gmin = 1.5325e-05
Gmin = 1.6455e-06
Gmin = 1.76685e-07
Gmin = 1.89714e-08
Gmin = 2.03704e-09
Gmin = 2.18725e-10
Gmin = 2.34854e-11
Gmin = 2.52173e-12
Gmin = 0
Gmin stepping succeeded in finding the operating point.

Total elapsed time: 0.281 seconds.

Files loaded:
D:\Electronics_circ_p\mat\Five-Operation-ALU_LTspice_Verilog\LTspice\AddSub\AddSub_TB.net

